/*--------------------------------*- C++ -*----------------------------------*\
| =========                 |                                                 |
| \\      /  F ield         | OpenFOAM: The Open Source CFD Toolbox           |
|  \\    /   O peration     | Version:  1.4.1-dev                             |
|   \\  /    A nd           | Web:      http://www.openfoam.org               |
|    \\/     M anipulation  |                                                 |
\*---------------------------------------------------------------------------*/

FoamFile
{
    version 2.0;
    format ascii;
    class volVectorField;
    object U;
}

// * * * * * * * * * * * * * * * * * * * * * * * * * * * * * * * * * * * * * //

dimensions      [0 1 -1 0 0 0 0];

internalField   uniform (3 0 0);

boundaryField
{
    frontBoat
    {
        type            movingWallVelocity;
        value           uniform (0 0 0);
    }

    backBoat
    {
        type            movingWallVelocity;
        value           uniform (0 0 0);
    }

    in
    {
        type            fixedValue;
        value           uniform (3 0 0);
    }

    out
    {
        type            inletOutlet;
        inletValue      uniform (0 0 0);
        value           uniform (3 0 0);
    }

    bottom
    {
        type            slip;
    }

    top
    {
        type            slip;
    }

    back
    {
        type            slip;
    }

    front
    {
        type            slip;
    }
}


// ************************************************************************* //
