/*--------------------------------*- C++ -*----------------------------------*\
| =========                 |                                                 |
| \\      /  F ield         | OpenFOAM: The Open Source CFD Toolbox           |
|  \\    /   O peration     | Version:  1.4                                   |
|   \\  /    A nd           | Web:      http://www.openfoam.org               |
|    \\/     M anipulation  |                                                 |
\*---------------------------------------------------------------------------*/

FoamFile
{
    version         2.0;
    format          ascii;
    class           dictionary;
    object          fvSchemes;
}

// * * * * * * * * * * * * * * * * * * * * * * * * * * * * * * * * * * * * * //

ddtSchemes
{
    default Euler;
}

gradSchemes
{
    default         Gauss linear;
}

divSchemes
{
    div(rho*phi,U)  Gauss upwind;
    div(phi,alpha)   Gauss vanLeer01;
    div(phirb,alpha) Gauss interfaceCompression;
    div(phi,k)      Gauss upwind;
    div(phi,omega) Gauss upwind;
    div(R)          Gauss linear;

    div((nuEff*dev(grad(U).T()))) Gauss linear;
}

laplacianSchemes
{
    default         Gauss linear limited 0.5;
}

interpolationSchemes
{
    default           linear;
}

snGradSchemes
{
    default         limited 0.5;
}

fluxRequired
{
    default         no;
    pd;
    pcorr;
    alpha1;

    p;
}


// ************************************************************************* //
