/*--------------------------------*- C++ -*----------------------------------*\
| =========                 |                                                 |
| \\      /  F ield         | OpenFOAM: The Open Source CFD Toolbox           |
|  \\    /   O peration     | Version:  1.4.1                                 |
|   \\  /    A nd           | Web:      http://www.openfoam.org               |
|    \\/     M anipulation  |                                                 |
\*---------------------------------------------------------------------------*/

FoamFile
{
    version 2.0;
    format ascii;
    class volScalarField;
    object pd;
}

// * * * * * * * * * * * * * * * * * * * * * * * * * * * * * * * * * * * * * //

dimensions      [1 -1 -2 0 0 0 0];

internalField   uniform 0;

boundaryField
{
    barge
    {
        type            zeroGradient;
    }

    left
    {
        type            zeroGradient;
    }

    right
    {
        type            zeroGradient;
    }

    bottom
    {
        type            zeroGradient;
    }

    top
    {
        type            totalPressure;
        U               U;
        phi             phi;
        rho             rho;
        psi             none;
        gamma           0;
        p0              uniform 0;
        value           uniform 0;
    }

    frontAndBack
    {
        type            empty;
    }
}


// ************************************************************************* //
